ECE 482 PROJECT TESTBENCH
.lib '/class/ece482/gpdk045_mos' TT
.include "resm11_pcell_1.sp"

*The following parameter can be modified.
.param nom_vdd = 1.1
*.param nom_vdd = 0.9

*The following parameters cannot be modified.
.param tstart = 1n
.param TCK = 4n
.param trf_ck = 200p
.param trf_ip_reset = 200p
.param reset_pw = 7n
.param CK_pw = 0.5*TCK
.param reset_delay = 1n
.param sim_end = 11*TCK
.param input_delay = 9.5n
.param input_delay2 = 9.7n
.param input_delay3 = 9.2n
.param input_delay4 = 9.8n
.param input_pw = 1*TCK

*Put your extracted netlist below this comment

** Library name: test2
** Cell name: level_shifter_1_1_to_1_8
** View name: schematic
.subckt level_shifter_1_1_to_1_8 bio bio_bar b_core b_core_bar vdd vss
m1 bio b_core_bar vss vss g45n2svt L=150e-9 W=640e-9 AD='640e-9/ceil(63.9995e-3)<119.5e-9?(floor(ceil(63.9995e-3)/2.0)*(14.4e-15+(640e-9/ceil(63.9995e-3))*100e-9)+(ceil(63.9995e-3)/2-floor(ceil(63.9995e-3)/2)!=0?14.4e-15+(640e-9/ceil(63.9995e-3))*50e-9:0))/1:(floor(ceil(63.9995e-3)/2.0)*(200e-9*(640e-9/ceil(63.9995e-3)))+(ceil(63.9995e-3)/2-floor(ceil(63.9995e-3)/2)!=0?150e-9*(640e-9/ceil(63.9995e-3)):0))/1' AS='640e-9/ceil(63.9995e-3)<119.5e-9?(((14.4e-15+(640e-9/ceil(63.9995e-3))*50e-9)+floor((ceil(63.9995e-3)-1)/2.0)*(14.4e-15+(640e-9/ceil(63.9995e-3))*100e-9))+(ceil(63.9995e-3)/2-floor(ceil(63.9995e-3)/2)==0?14.4e-15+(640e-9/ceil(63.9995e-3))*50e-9:0))/1:((150e-9*(640e-9/ceil(63.9995e-3))+floor((ceil(63.9995e-3)-1)/2.0)*(200e-9*(640e-9/ceil(63.9995e-3))))+(ceil(63.9995e-3)/2-floor(ceil(63.9995e-3)/2)==0?150e-9*(640e-9/ceil(63.9995e-3)):0))/1'
+PD='640e-9/ceil(63.9995e-3)<119.5e-9?(floor(ceil(63.9995e-3)/2.0)*680e-9+(ceil(63.9995e-3)/2-floor(ceil(63.9995e-3)/2)!=0?580e-9:0))/1:(floor(ceil(63.9995e-3)/2.0)*(400e-9+2*(640e-9/ceil(63.9995e-3)))+(ceil(63.9995e-3)/2-floor(ceil(63.9995e-3)/2)!=0?300e-9+2*(640e-9/ceil(63.9995e-3)):0))/1' PS='640e-9/ceil(63.9995e-3)<119.5e-9?((580e-9+floor((ceil(63.9995e-3)-1)/2.0)*680e-9)+(ceil(63.9995e-3)/2-floor(ceil(63.9995e-3)/2)==0?580e-9:0))/1:(((300e-9+2*(640e-9/ceil(63.9995e-3)))+floor((ceil(63.9995e-3)-1)/2.0)*(400e-9+2*(640e-9/ceil(63.9995e-3))))+(ceil(63.9995e-3)/2-floor(ceil(63.9995e-3)/2)==0?300e-9+2*(640e-9/ceil(63.9995e-3)):0))/1'
+NRD='640e-9/ceil(63.9995e-3)<119.5e-9?(floor(ceil(63.9995e-3)/2.0)*(14.4e-15+(640e-9/ceil(63.9995e-3))*100e-9)+(ceil(63.9995e-3)/2-floor(ceil(63.9995e-3)/2)!=0?14.4e-15+(640e-9/ceil(63.9995e-3))*50e-9:0))/1:((floor(ceil(63.9995e-3)/2.0)*(200e-9*(640e-9/ceil(63.9995e-3)))+(ceil(63.9995e-3)/2-floor(ceil(63.9995e-3)/2)!=0?150e-9*(640e-9/ceil(63.9995e-3)):0))/1)/((((640e-9/ceil(63.9995e-3))*ceil(63.9995e-3))*(640e-9/ceil(63.9995e-3)))*ceil(63.9995e-3))' NRS='640e-9/ceil(63.9995e-3)<119.5e-9?(((14.4e-15+(640e-9/ceil(63.9995e-3))*50e-9)+floor((ceil(63.9995e-3)-1)/2.0)*(14.4e-15+(640e-9/ceil(63.9995e-3))*100e-9))+(ceil(63.9995e-3)/2-floor(ceil(63.9995e-3)/2)==0?14.4e-15+(640e-9/ceil(63.9995e-3))*50e-9:0))/1:(((150e-9*(640e-9/ceil(63.9995e-3))+floor((ceil(63.9995e-3)-1)/2.0)*(200e-9*(640e-9/ceil(63.9995e-3))))+(ceil(63.9995e-3)/2-floor(ceil(63.9995e-3)/2)==0?150e-9*(640e-9/ceil(63.9995e-3)):0))/1)/((((640e-9/ceil(63.9995e-3))*ceil(63.9995e-3))*(640e-9/ceil(63.9995e-3)))*ceil(63.9995e-3))' M=1
m0 bio_bar b_core vss vss g45n2svt L=150e-9 W=640e-9 AD='640e-9/ceil(63.9995e-3)<119.5e-9?(floor(ceil(63.9995e-3)/2.0)*(14.4e-15+(640e-9/ceil(63.9995e-3))*100e-9)+(ceil(63.9995e-3)/2-floor(ceil(63.9995e-3)/2)!=0?14.4e-15+(640e-9/ceil(63.9995e-3))*50e-9:0))/1:(floor(ceil(63.9995e-3)/2.0)*(200e-9*(640e-9/ceil(63.9995e-3)))+(ceil(63.9995e-3)/2-floor(ceil(63.9995e-3)/2)!=0?150e-9*(640e-9/ceil(63.9995e-3)):0))/1' AS='640e-9/ceil(63.9995e-3)<119.5e-9?(((14.4e-15+(640e-9/ceil(63.9995e-3))*50e-9)+floor((ceil(63.9995e-3)-1)/2.0)*(14.4e-15+(640e-9/ceil(63.9995e-3))*100e-9))+(ceil(63.9995e-3)/2-floor(ceil(63.9995e-3)/2)==0?14.4e-15+(640e-9/ceil(63.9995e-3))*50e-9:0))/1:((150e-9*(640e-9/ceil(63.9995e-3))+floor((ceil(63.9995e-3)-1)/2.0)*(200e-9*(640e-9/ceil(63.9995e-3))))+(ceil(63.9995e-3)/2-floor(ceil(63.9995e-3)/2)==0?150e-9*(640e-9/ceil(63.9995e-3)):0))/1'
+PD='640e-9/ceil(63.9995e-3)<119.5e-9?(floor(ceil(63.9995e-3)/2.0)*680e-9+(ceil(63.9995e-3)/2-floor(ceil(63.9995e-3)/2)!=0?580e-9:0))/1:(floor(ceil(63.9995e-3)/2.0)*(400e-9+2*(640e-9/ceil(63.9995e-3)))+(ceil(63.9995e-3)/2-floor(ceil(63.9995e-3)/2)!=0?300e-9+2*(640e-9/ceil(63.9995e-3)):0))/1' PS='640e-9/ceil(63.9995e-3)<119.5e-9?((580e-9+floor((ceil(63.9995e-3)-1)/2.0)*680e-9)+(ceil(63.9995e-3)/2-floor(ceil(63.9995e-3)/2)==0?580e-9:0))/1:(((300e-9+2*(640e-9/ceil(63.9995e-3)))+floor((ceil(63.9995e-3)-1)/2.0)*(400e-9+2*(640e-9/ceil(63.9995e-3))))+(ceil(63.9995e-3)/2-floor(ceil(63.9995e-3)/2)==0?300e-9+2*(640e-9/ceil(63.9995e-3)):0))/1'
+NRD='640e-9/ceil(63.9995e-3)<119.5e-9?(floor(ceil(63.9995e-3)/2.0)*(14.4e-15+(640e-9/ceil(63.9995e-3))*100e-9)+(ceil(63.9995e-3)/2-floor(ceil(63.9995e-3)/2)!=0?14.4e-15+(640e-9/ceil(63.9995e-3))*50e-9:0))/1:((floor(ceil(63.9995e-3)/2.0)*(200e-9*(640e-9/ceil(63.9995e-3)))+(ceil(63.9995e-3)/2-floor(ceil(63.9995e-3)/2)!=0?150e-9*(640e-9/ceil(63.9995e-3)):0))/1)/((((640e-9/ceil(63.9995e-3))*ceil(63.9995e-3))*(640e-9/ceil(63.9995e-3)))*ceil(63.9995e-3))' NRS='640e-9/ceil(63.9995e-3)<119.5e-9?(((14.4e-15+(640e-9/ceil(63.9995e-3))*50e-9)+floor((ceil(63.9995e-3)-1)/2.0)*(14.4e-15+(640e-9/ceil(63.9995e-3))*100e-9))+(ceil(63.9995e-3)/2-floor(ceil(63.9995e-3)/2)==0?14.4e-15+(640e-9/ceil(63.9995e-3))*50e-9:0))/1:(((150e-9*(640e-9/ceil(63.9995e-3))+floor((ceil(63.9995e-3)-1)/2.0)*(200e-9*(640e-9/ceil(63.9995e-3))))+(ceil(63.9995e-3)/2-floor(ceil(63.9995e-3)/2)==0?150e-9*(640e-9/ceil(63.9995e-3)):0))/1)/((((640e-9/ceil(63.9995e-3))*ceil(63.9995e-3))*(640e-9/ceil(63.9995e-3)))*ceil(63.9995e-3))' M=1
mpm1 bio bio_bar vdd vdd g45p2svt L=150e-9 W=480e-9 AD='480e-9/ceil(47.9995e-3)<119.5e-9?(floor(ceil(47.9995e-3)/2.0)*(14.4e-15+(480e-9/ceil(47.9995e-3))*100e-9)+(ceil(47.9995e-3)/2-floor(ceil(47.9995e-3)/2)!=0?14.4e-15+(480e-9/ceil(47.9995e-3))*50e-9:0))/1:(floor(ceil(47.9995e-3)/2.0)*(110e-9*(480e-9/ceil(47.9995e-3)))+(ceil(47.9995e-3)/2-floor(ceil(47.9995e-3)/2)!=0?140e-9*(480e-9/ceil(47.9995e-3)):0))/1' AS='480e-9/ceil(47.9995e-3)<119.5e-9?(((14.4e-15+(480e-9/ceil(47.9995e-3))*50e-9)+floor((ceil(47.9995e-3)-1)/2.0)*(14.4e-15+(480e-9/ceil(47.9995e-3))*100e-9))+(ceil(47.9995e-3)/2-floor(ceil(47.9995e-3)/2)==0?14.4e-15+(480e-9/ceil(47.9995e-3))*50e-9:0))/1:((140e-9*(480e-9/ceil(47.9995e-3))+floor((ceil(47.9995e-3)-1)/2.0)*(110e-9*(480e-9/ceil(47.9995e-3))))+(ceil(47.9995e-3)/2-floor(ceil(47.9995e-3)/2)==0?140e-9*(480e-9/ceil(47.9995e-3)):0))/1'
+PD='480e-9/ceil(47.9995e-3)<119.5e-9?(floor(ceil(47.9995e-3)/2.0)*680e-9+(ceil(47.9995e-3)/2-floor(ceil(47.9995e-3)/2)!=0?580e-9:0))/1:(floor(ceil(47.9995e-3)/2.0)*(220e-9+2*(480e-9/ceil(47.9995e-3)))+(ceil(47.9995e-3)/2-floor(ceil(47.9995e-3)/2)!=0?280e-9+2*(480e-9/ceil(47.9995e-3)):0))/1' PS='480e-9/ceil(47.9995e-3)<119.5e-9?((580e-9+floor((ceil(47.9995e-3)-1)/2.0)*680e-9)+(ceil(47.9995e-3)/2-floor(ceil(47.9995e-3)/2)==0?580e-9:0))/1:(((280e-9+2*(480e-9/ceil(47.9995e-3)))+floor((ceil(47.9995e-3)-1)/2.0)*(220e-9+2*(480e-9/ceil(47.9995e-3))))+(ceil(47.9995e-3)/2-floor(ceil(47.9995e-3)/2)==0?280e-9+2*(480e-9/ceil(47.9995e-3)):0))/1'
+NRD='480e-9/ceil(47.9995e-3)<119.5e-9?(floor(ceil(47.9995e-3)/2.0)*(14.4e-15+(480e-9/ceil(47.9995e-3))*100e-9)+(ceil(47.9995e-3)/2-floor(ceil(47.9995e-3)/2)!=0?14.4e-15+(480e-9/ceil(47.9995e-3))*50e-9:0))/1:((floor(ceil(47.9995e-3)/2.0)*(110e-9*(480e-9/ceil(47.9995e-3)))+(ceil(47.9995e-3)/2-floor(ceil(47.9995e-3)/2)!=0?140e-9*(480e-9/ceil(47.9995e-3)):0))/1)/((((480e-9/ceil(47.9995e-3))*ceil(47.9995e-3))*(480e-9/ceil(47.9995e-3)))*ceil(47.9995e-3))' NRS='480e-9/ceil(47.9995e-3)<119.5e-9?(((14.4e-15+(480e-9/ceil(47.9995e-3))*50e-9)+floor((ceil(47.9995e-3)-1)/2.0)*(14.4e-15+(480e-9/ceil(47.9995e-3))*100e-9))+(ceil(47.9995e-3)/2-floor(ceil(47.9995e-3)/2)==0?14.4e-15+(480e-9/ceil(47.9995e-3))*50e-9:0))/1:(((140e-9*(480e-9/ceil(47.9995e-3))+floor((ceil(47.9995e-3)-1)/2.0)*(110e-9*(480e-9/ceil(47.9995e-3))))+(ceil(47.9995e-3)/2-floor(ceil(47.9995e-3)/2)==0?140e-9*(480e-9/ceil(47.9995e-3)):0))/1)/((((480e-9/ceil(47.9995e-3))*ceil(47.9995e-3))*(480e-9/ceil(47.9995e-3)))*ceil(47.9995e-3))' M=1
mpm0 bio_bar bio vdd vdd g45p2svt L=150e-9 W=480e-9 AD='480e-9/ceil(47.9995e-3)<119.5e-9?(floor(ceil(47.9995e-3)/2.0)*(14.4e-15+(480e-9/ceil(47.9995e-3))*100e-9)+(ceil(47.9995e-3)/2-floor(ceil(47.9995e-3)/2)!=0?14.4e-15+(480e-9/ceil(47.9995e-3))*50e-9:0))/1:(floor(ceil(47.9995e-3)/2.0)*(110e-9*(480e-9/ceil(47.9995e-3)))+(ceil(47.9995e-3)/2-floor(ceil(47.9995e-3)/2)!=0?140e-9*(480e-9/ceil(47.9995e-3)):0))/1' AS='480e-9/ceil(47.9995e-3)<119.5e-9?(((14.4e-15+(480e-9/ceil(47.9995e-3))*50e-9)+floor((ceil(47.9995e-3)-1)/2.0)*(14.4e-15+(480e-9/ceil(47.9995e-3))*100e-9))+(ceil(47.9995e-3)/2-floor(ceil(47.9995e-3)/2)==0?14.4e-15+(480e-9/ceil(47.9995e-3))*50e-9:0))/1:((140e-9*(480e-9/ceil(47.9995e-3))+floor((ceil(47.9995e-3)-1)/2.0)*(110e-9*(480e-9/ceil(47.9995e-3))))+(ceil(47.9995e-3)/2-floor(ceil(47.9995e-3)/2)==0?140e-9*(480e-9/ceil(47.9995e-3)):0))/1'
+PD='480e-9/ceil(47.9995e-3)<119.5e-9?(floor(ceil(47.9995e-3)/2.0)*680e-9+(ceil(47.9995e-3)/2-floor(ceil(47.9995e-3)/2)!=0?580e-9:0))/1:(floor(ceil(47.9995e-3)/2.0)*(220e-9+2*(480e-9/ceil(47.9995e-3)))+(ceil(47.9995e-3)/2-floor(ceil(47.9995e-3)/2)!=0?280e-9+2*(480e-9/ceil(47.9995e-3)):0))/1' PS='480e-9/ceil(47.9995e-3)<119.5e-9?((580e-9+floor((ceil(47.9995e-3)-1)/2.0)*680e-9)+(ceil(47.9995e-3)/2-floor(ceil(47.9995e-3)/2)==0?580e-9:0))/1:(((280e-9+2*(480e-9/ceil(47.9995e-3)))+floor((ceil(47.9995e-3)-1)/2.0)*(220e-9+2*(480e-9/ceil(47.9995e-3))))+(ceil(47.9995e-3)/2-floor(ceil(47.9995e-3)/2)==0?280e-9+2*(480e-9/ceil(47.9995e-3)):0))/1'
+NRD='480e-9/ceil(47.9995e-3)<119.5e-9?(floor(ceil(47.9995e-3)/2.0)*(14.4e-15+(480e-9/ceil(47.9995e-3))*100e-9)+(ceil(47.9995e-3)/2-floor(ceil(47.9995e-3)/2)!=0?14.4e-15+(480e-9/ceil(47.9995e-3))*50e-9:0))/1:((floor(ceil(47.9995e-3)/2.0)*(110e-9*(480e-9/ceil(47.9995e-3)))+(ceil(47.9995e-3)/2-floor(ceil(47.9995e-3)/2)!=0?140e-9*(480e-9/ceil(47.9995e-3)):0))/1)/((((480e-9/ceil(47.9995e-3))*ceil(47.9995e-3))*(480e-9/ceil(47.9995e-3)))*ceil(47.9995e-3))' NRS='480e-9/ceil(47.9995e-3)<119.5e-9?(((14.4e-15+(480e-9/ceil(47.9995e-3))*50e-9)+floor((ceil(47.9995e-3)-1)/2.0)*(14.4e-15+(480e-9/ceil(47.9995e-3))*100e-9))+(ceil(47.9995e-3)/2-floor(ceil(47.9995e-3)/2)==0?14.4e-15+(480e-9/ceil(47.9995e-3))*50e-9:0))/1:(((140e-9*(480e-9/ceil(47.9995e-3))+floor((ceil(47.9995e-3)-1)/2.0)*(110e-9*(480e-9/ceil(47.9995e-3))))+(ceil(47.9995e-3)/2-floor(ceil(47.9995e-3)/2)==0?140e-9*(480e-9/ceil(47.9995e-3)):0))/1)/((((480e-9/ceil(47.9995e-3))*ceil(47.9995e-3))*(480e-9/ceil(47.9995e-3)))*ceil(47.9995e-3))' M=1
.ends level_shifter_1_1_to_1_8
** End of subcircuit definition.

** Library name: ece_482_pdn_v2
** Cell name: unitcell_decap
** View name: schematic
.subckt unitcell_decap vddio vss
m0 net1 net2 vss vss g45n2svt L=150e-9 W=18e-6 AD=1.8e-12 AS=2.1e-12 PD=19.2e-6 PS=25.4e-6 NRD=5.55556e-3 NRS=6.48148e-3 M=1
m1 net2 net1 vddio vddio g45p2svt L=150e-9 W=18e-6 AD=1.8e-12 AS=2.1e-12 PD=19.2e-6 PS=25.4e-6 NRD=5.55556e-3 NRS=6.48148e-3 M=1
.ends unitcell_decap
** End of subcircuit definition.

** Library name: ece_482_pdn_v2
** Cell name: decap3x3x2
** View name: schematic
.subckt decap3x3x2 vddio vss
xi1<0> vddio vss unitcell_decap
xi1<1> vddio vss unitcell_decap
xi1<2> vddio vss unitcell_decap
xi1<3> vddio vss unitcell_decap
xi1<4> vddio vss unitcell_decap
xi1<5> vddio vss unitcell_decap
xi1<6> vddio vss unitcell_decap
xi1<7> vddio vss unitcell_decap
xi1<8> vddio vss unitcell_decap
xi1<9> vddio vss unitcell_decap
xi1<10> vddio vss unitcell_decap
xi1<11> vddio vss unitcell_decap
xi1<12> vddio vss unitcell_decap
xi1<13> vddio vss unitcell_decap
xi1<14> vddio vss unitcell_decap
xi1<15> vddio vss unitcell_decap
xi1<16> vddio vss unitcell_decap
xi1<17> vddio vss unitcell_decap
xi1<18> vddio vss unitcell_decap
xi1<19> vddio vss unitcell_decap
xi1<20> vddio vss unitcell_decap
xi1<21> vddio vss unitcell_decap
xi1<22> vddio vss unitcell_decap
xi1<23> vddio vss unitcell_decap
xi1<24> vddio vss unitcell_decap
xi1<25> vddio vss unitcell_decap
xi1<26> vddio vss unitcell_decap
xi1<27> vddio vss unitcell_decap
xi1<28> vddio vss unitcell_decap
xi1<29> vddio vss unitcell_decap
xi1<30> vddio vss unitcell_decap
xi1<31> vddio vss unitcell_decap
xi1<32> vddio vss unitcell_decap
xi1<33> vddio vss unitcell_decap
xi1<34> vddio vss unitcell_decap
xi1<35> vddio vss unitcell_decap
xi1<36> vddio vss unitcell_decap
xi1<37> vddio vss unitcell_decap
xi1<38> vddio vss unitcell_decap
xi1<39> vddio vss unitcell_decap
.ends decap3x3x2
** End of subcircuit definition.

** Library name: test2
** Cell name: half_adder
** View name: schematic
.subckt half_adder a b c_out s vdd vss
mnm5 vss s c_out vss g45n1svt L=45e-9 W=120e-9 AD=16.8e-15 AS=16.8e-15 PD=520e-9 PS=520e-9 NRD=1.16667 NRS=1.16667 M=1
mnm3 a_xor_b_bar s vss vss g45n1svt L=45e-9 W=480e-9 AD=38.4e-15 AS=52.8e-15 PD=1.12e-6 PS=1.6e-6 NRD=166.667e-3 NRS=229.167e-3 M=1
mnm4 b a_xor_b_bar c_out vss g45n1svt L=45e-9 W=120e-9 AD=16.8e-15 AS=16.8e-15 PD=520e-9 PS=520e-9 NRD=1.16667 NRS=1.16667 M=1
mnm2 s net8 b vss g45n1svt L=45e-9 W=120e-9 AD=16.8e-15 AS=16.8e-15 PD=520e-9 PS=520e-9 NRD=1.16667 NRS=1.16667 M=1
mnm0 s b net8 vss g45n1svt L=45e-9 W=240e-9 AD=19.2e-15 AS=33.6e-15 PD=560e-9 PS=1.04e-6 NRD=333.333e-3 NRS=583.333e-3 M=1
mnm1 net8 a vss vss g45n1svt L=45e-9 W=480e-9 AD=38.4e-15 AS=52.8e-15 PD=1.12e-6 PS=1.6e-6 NRD=166.667e-3 NRS=229.167e-3 M=1
mpm7 b s c_out vdd g45p1svt L=45e-9 W=240e-9 AD=33.6e-15 AS=33.6e-15 PD=760e-9 PS=760e-9 NRD=583.333e-3 NRS=583.333e-3 M=1
mpm5 s a b vdd g45p1svt L=45e-9 W=240e-9 AD=33.6e-15 AS=33.6e-15 PD=760e-9 PS=760e-9 NRD=583.333e-3 NRS=583.333e-3 M=1
mpm8 vss a_xor_b_bar c_out vdd g45p1svt L=45e-9 W=240e-9 AD=33.6e-15 AS=33.6e-15 PD=760e-9 PS=760e-9 NRD=583.333e-3 NRS=583.333e-3 M=1
mpm6 a_xor_b_bar s vdd vdd g45p1svt L=45e-9 W=960e-9 AD=76.8e-15 AS=105.6e-15 PD=1.6e-6 PS=2.32e-6 NRD=83.3333e-3 NRS=114.583e-3 M=1
mpm0 s b a vdd g45p1svt L=45e-9 W=480e-9 AD=38.4e-15 AS=67.2e-15 PD=800e-9 PS=1.52e-6 NRD=166.667e-3 NRS=291.667e-3 M=1
mpm4 net8 a vdd vdd g45p1svt L=45e-9 W=960e-9 AD=76.8e-15 AS=105.6e-15 PD=1.6e-6 PS=2.32e-6 NRD=83.3333e-3 NRS=114.583e-3 M=1
.ends half_adder
** End of subcircuit definition.

** Library name: test2
** Cell name: full_adder
** View name: schematic
.subckt full_adder a b c c_out s vdd vss
mnm6 c a_xor_b_bar s vss g45n1svt L=45e-9 W=120e-9 AD=16.8e-15 AS=16.8e-15 PD=520e-9 PS=520e-9 NRD=1.16667 NRS=1.16667 M=1
mnm4 b a_xor_b_bar c_out vss g45n1svt L=45e-9 W=120e-9 AD=16.8e-15 AS=16.8e-15 PD=520e-9 PS=520e-9 NRD=1.16667 NRS=1.16667 M=1
mnm3 a_xor_b_bar a_xor_b vss vss g45n1svt L=45e-9 W=480e-9 AD=38.4e-15 AS=52.8e-15 PD=1.12e-6 PS=1.6e-6 NRD=166.667e-3 NRS=229.167e-3 M=1
mnm2 net1 c vss vss g45n1svt L=45e-9 W=480e-9 AD=38.4e-15 AS=52.8e-15 PD=1.12e-6 PS=1.6e-6 NRD=166.667e-3 NRS=229.167e-3 M=1
mnm0 a_xor_b b net4 vss g45n1svt L=45e-9 W=240e-9 AD=19.2e-15 AS=33.6e-15 PD=560e-9 PS=1.04e-6 NRD=333.333e-3 NRS=583.333e-3 M=1
mnm1 net4 a vss vss g45n1svt L=45e-9 W=480e-9 AD=38.4e-15 AS=52.8e-15 PD=1.12e-6 PS=1.6e-6 NRD=166.667e-3 NRS=229.167e-3 M=1
mnm8 a_xor_b net4 b vss g45n1svt L=45e-9 W=120e-9 AD=16.8e-15 AS=16.8e-15 PD=520e-9 PS=520e-9 NRD=1.16667 NRS=1.16667 M=1
mnm5 c a_xor_b c_out vss g45n1svt L=45e-9 W=120e-9 AD=16.8e-15 AS=16.8e-15 PD=520e-9 PS=520e-9 NRD=1.16667 NRS=1.16667 M=1
mnm7 net1 a_xor_b s vss g45n1svt L=45e-9 W=120e-9 AD=16.8e-15 AS=16.8e-15 PD=520e-9 PS=520e-9 NRD=1.16667 NRS=1.16667 M=1
mpm8 a_xor_b a b vdd g45p1svt L=45e-9 W=240e-9 AD=33.6e-15 AS=33.6e-15 PD=760e-9 PS=760e-9 NRD=583.333e-3 NRS=583.333e-3 M=1
mpm7 net1 a_xor_b_bar s vdd g45p1svt L=45e-9 W=240e-9 AD=33.6e-15 AS=33.6e-15 PD=760e-9 PS=760e-9 NRD=583.333e-3 NRS=583.333e-3 M=1
mpm4 b a_xor_b c_out vdd g45p1svt L=45e-9 W=240e-9 AD=33.6e-15 AS=33.6e-15 PD=760e-9 PS=760e-9 NRD=583.333e-3 NRS=583.333e-3 M=1
mpm1 net4 a vdd vdd g45p1svt L=45e-9 W=960e-9 AD=76.8e-15 AS=105.6e-15 PD=1.6e-6 PS=2.32e-6 NRD=83.3333e-3 NRS=114.583e-3 M=1
mpm0 a_xor_b b a vdd g45p1svt L=45e-9 W=480e-9 AD=38.4e-15 AS=67.2e-15 PD=800e-9 PS=1.52e-6 NRD=166.667e-3 NRS=291.667e-3 M=1
mpm2 net1 c vdd vdd g45p1svt L=45e-9 W=960e-9 AD=76.8e-15 AS=105.6e-15 PD=1.6e-6 PS=2.32e-6 NRD=83.3333e-3 NRS=114.583e-3 M=1
mpm3 a_xor_b_bar a_xor_b vdd vdd g45p1svt L=45e-9 W=960e-9 AD=76.8e-15 AS=105.6e-15 PD=1.6e-6 PS=2.32e-6 NRD=83.3333e-3 NRS=114.583e-3 M=1
mpm5 c a_xor_b_bar c_out vdd g45p1svt L=45e-9 W=240e-9 AD=33.6e-15 AS=33.6e-15 PD=760e-9 PS=760e-9 NRD=583.333e-3 NRS=583.333e-3 M=1
mpm6 c a_xor_b s vdd g45p1svt L=45e-9 W=240e-9 AD=33.6e-15 AS=33.6e-15 PD=760e-9 PS=760e-9 NRD=583.333e-3 NRS=583.333e-3 M=1
.ends full_adder
** End of subcircuit definition.

** Library name: test2
** Cell name: inverter_minsize
** View name: schematic
.subckt inverter_minsize in out vdd vss
mpm0 out in vdd vdd g45p1svt L=45e-9 W=240e-9 AD=33.6e-15 AS=33.6e-15 PD=760e-9 PS=760e-9 NRD=583.333e-3 NRS=583.333e-3 M=1
mnm0 out in vss vss g45n1svt L=45e-9 W=120e-9 AD=16.8e-15 AS=16.8e-15 PD=520e-9 PS=520e-9 NRD=1.16667 NRS=1.16667 M=1
.ends inverter_minsize
** End of subcircuit definition.

** Library name: test2
** Cell name: and_minsize
** View name: schematic
.subckt and_minsize a b out vdd vss
mpm1 net1 b vdd vdd g45p1svt L=45e-9 W=240e-9 AD=33.6e-15 AS=33.6e-15 PD=760e-9 PS=760e-9 NRD=583.333e-3 NRS=583.333e-3 M=1
mpm0 net1 a vdd vdd g45p1svt L=45e-9 W=240e-9 AD=33.6e-15 AS=33.6e-15 PD=760e-9 PS=760e-9 NRD=583.333e-3 NRS=583.333e-3 M=1
mnm1 net10 b vss vss g45n1svt L=45e-9 W=240e-9 AD=33.6e-15 AS=33.6e-15 PD=760e-9 PS=760e-9 NRD=583.333e-3 NRS=583.333e-3 M=1
mnm0 net1 a net10 vss g45n1svt L=45e-9 W=240e-9 AD=33.6e-15 AS=33.6e-15 PD=760e-9 PS=760e-9 NRD=583.333e-3 NRS=583.333e-3 M=1
xi0 net1 out vdd vss inverter_minsize
.ends and_minsize
** End of subcircuit definition.

** Library name: test2
** Cell name: level_shifter_1_8_to_1_1
** View name: schematic
.subckt level_shifter_1_8_to_1_1 aio aio_bar a_core a_core_bar vdd vss
m1 a_core aio_bar vss vss g45n2svt L=150e-9 W=640e-9 AD=96e-15 AS=96e-15 PD=1.58e-6 PS=1.58e-6 NRD=234.375e-3 NRS=234.375e-3 M=1
m0 a_core_bar aio vss vss g45n2svt L=150e-9 W=640e-9 AD=96e-15 AS=96e-15 PD=1.58e-6 PS=1.58e-6 NRD=234.375e-3 NRS=234.375e-3 M=1
mpm1 a_core a_core_bar vdd vdd g45p1svt L=45e-9 W=480e-9 AD=67.2e-15 AS=67.2e-15 PD=1.24e-6 PS=1.24e-6 NRD=291.667e-3 NRS=291.667e-3 M=1
mpm0 a_core_bar a_core vdd vdd g45p1svt L=45e-9 W=480e-9 AD=67.2e-15 AS=67.2e-15 PD=1.24e-6 PS=1.24e-6 NRD=291.667e-3 NRS=291.667e-3 M=1
.ends level_shifter_1_8_to_1_1
** End of subcircuit definition.

** Library name: test2
** Cell name: inverter_1_8_v
** View name: schematic
.subckt inverter_1_8_v in out vddio vssio
m0 out in vssio vssio g45n2svt L=150e-9 W=320e-9 AD=48e-15 AS=48e-15 PD=940e-9 PS=940e-9 NRD=468.75e-3 NRS=468.75e-3 M=1
m1 out in vddio vddio g45p2svt L=150e-9 W=640e-9 AD=96e-15 AS=96e-15 PD=1.58e-6 PS=1.58e-6 NRD=234.375e-3 NRS=234.375e-3 M=1
.ends inverter_1_8_v
** End of subcircuit definition.

** Library name: test2
** Cell name: C2MOS_register
** View name: schematic
.subckt C2MOS_register clk clk_bar d q rst vdd vss
mpm3 net17 x vdd vdd g45p1svt L=45e-9 W=240e-9 AD='240e-9/ceil(23.9995e-3)<119.5e-9?(floor(ceil(23.9995e-3)/2.0)*(14.4e-15+(240e-9/ceil(23.9995e-3))*100e-9)+(ceil(23.9995e-3)/2-floor(ceil(23.9995e-3)/2)!=0?14.4e-15+(240e-9/ceil(23.9995e-3))*50e-9:0))/1:(floor(ceil(23.9995e-3)/2.0)*(110e-9*(240e-9/ceil(23.9995e-3)))+(ceil(23.9995e-3)/2-floor(ceil(23.9995e-3)/2)!=0?140e-9*(240e-9/ceil(23.9995e-3)):0))/1' AS='240e-9/ceil(23.9995e-3)<119.5e-9?(((14.4e-15+(240e-9/ceil(23.9995e-3))*50e-9)+floor((ceil(23.9995e-3)-1)/2.0)*(14.4e-15+(240e-9/ceil(23.9995e-3))*100e-9))+(ceil(23.9995e-3)/2-floor(ceil(23.9995e-3)/2)==0?14.4e-15+(240e-9/ceil(23.9995e-3))*50e-9:0))/1:((140e-9*(240e-9/ceil(23.9995e-3))+floor((ceil(23.9995e-3)-1)/2.0)*(110e-9*(240e-9/ceil(23.9995e-3))))+(ceil(23.9995e-3)/2-floor(ceil(23.9995e-3)/2)==0?140e-9*(240e-9/ceil(23.9995e-3)):0))/1'
+PD='240e-9/ceil(23.9995e-3)<119.5e-9?(floor(ceil(23.9995e-3)/2.0)*680e-9+(ceil(23.9995e-3)/2-floor(ceil(23.9995e-3)/2)!=0?580e-9:0))/1:(floor(ceil(23.9995e-3)/2.0)*(220e-9+2*(240e-9/ceil(23.9995e-3)))+(ceil(23.9995e-3)/2-floor(ceil(23.9995e-3)/2)!=0?280e-9+2*(240e-9/ceil(23.9995e-3)):0))/1' PS='240e-9/ceil(23.9995e-3)<119.5e-9?((580e-9+floor((ceil(23.9995e-3)-1)/2.0)*680e-9)+(ceil(23.9995e-3)/2-floor(ceil(23.9995e-3)/2)==0?580e-9:0))/1:(((280e-9+2*(240e-9/ceil(23.9995e-3)))+floor((ceil(23.9995e-3)-1)/2.0)*(220e-9+2*(240e-9/ceil(23.9995e-3))))+(ceil(23.9995e-3)/2-floor(ceil(23.9995e-3)/2)==0?280e-9+2*(240e-9/ceil(23.9995e-3)):0))/1'
+NRD='240e-9/ceil(23.9995e-3)<119.5e-9?(floor(ceil(23.9995e-3)/2.0)*(14.4e-15+(240e-9/ceil(23.9995e-3))*100e-9)+(ceil(23.9995e-3)/2-floor(ceil(23.9995e-3)/2)!=0?14.4e-15+(240e-9/ceil(23.9995e-3))*50e-9:0))/1:((floor(ceil(23.9995e-3)/2.0)*(110e-9*(240e-9/ceil(23.9995e-3)))+(ceil(23.9995e-3)/2-floor(ceil(23.9995e-3)/2)!=0?140e-9*(240e-9/ceil(23.9995e-3)):0))/1)/((((240e-9/ceil(23.9995e-3))*ceil(23.9995e-3))*(240e-9/ceil(23.9995e-3)))*ceil(23.9995e-3))' NRS='240e-9/ceil(23.9995e-3)<119.5e-9?(((14.4e-15+(240e-9/ceil(23.9995e-3))*50e-9)+floor((ceil(23.9995e-3)-1)/2.0)*(14.4e-15+(240e-9/ceil(23.9995e-3))*100e-9))+(ceil(23.9995e-3)/2-floor(ceil(23.9995e-3)/2)==0?14.4e-15+(240e-9/ceil(23.9995e-3))*50e-9:0))/1:(((140e-9*(240e-9/ceil(23.9995e-3))+floor((ceil(23.9995e-3)-1)/2.0)*(110e-9*(240e-9/ceil(23.9995e-3))))+(ceil(23.9995e-3)/2-floor(ceil(23.9995e-3)/2)==0?140e-9*(240e-9/ceil(23.9995e-3)):0))/1)/((((240e-9/ceil(23.9995e-3))*ceil(23.9995e-3))*(240e-9/ceil(23.9995e-3)))*ceil(23.9995e-3))' M=1
mpm2 q clk_bar net17 vdd g45p1svt L=45e-9 W=240e-9 AD='240e-9/ceil(23.9995e-3)<119.5e-9?(floor(ceil(23.9995e-3)/2.0)*(14.4e-15+(240e-9/ceil(23.9995e-3))*100e-9)+(ceil(23.9995e-3)/2-floor(ceil(23.9995e-3)/2)!=0?14.4e-15+(240e-9/ceil(23.9995e-3))*50e-9:0))/1:(floor(ceil(23.9995e-3)/2.0)*(110e-9*(240e-9/ceil(23.9995e-3)))+(ceil(23.9995e-3)/2-floor(ceil(23.9995e-3)/2)!=0?140e-9*(240e-9/ceil(23.9995e-3)):0))/1' AS='240e-9/ceil(23.9995e-3)<119.5e-9?(((14.4e-15+(240e-9/ceil(23.9995e-3))*50e-9)+floor((ceil(23.9995e-3)-1)/2.0)*(14.4e-15+(240e-9/ceil(23.9995e-3))*100e-9))+(ceil(23.9995e-3)/2-floor(ceil(23.9995e-3)/2)==0?14.4e-15+(240e-9/ceil(23.9995e-3))*50e-9:0))/1:((140e-9*(240e-9/ceil(23.9995e-3))+floor((ceil(23.9995e-3)-1)/2.0)*(110e-9*(240e-9/ceil(23.9995e-3))))+(ceil(23.9995e-3)/2-floor(ceil(23.9995e-3)/2)==0?140e-9*(240e-9/ceil(23.9995e-3)):0))/1'
+PD='240e-9/ceil(23.9995e-3)<119.5e-9?(floor(ceil(23.9995e-3)/2.0)*680e-9+(ceil(23.9995e-3)/2-floor(ceil(23.9995e-3)/2)!=0?580e-9:0))/1:(floor(ceil(23.9995e-3)/2.0)*(220e-9+2*(240e-9/ceil(23.9995e-3)))+(ceil(23.9995e-3)/2-floor(ceil(23.9995e-3)/2)!=0?280e-9+2*(240e-9/ceil(23.9995e-3)):0))/1' PS='240e-9/ceil(23.9995e-3)<119.5e-9?((580e-9+floor((ceil(23.9995e-3)-1)/2.0)*680e-9)+(ceil(23.9995e-3)/2-floor(ceil(23.9995e-3)/2)==0?580e-9:0))/1:(((280e-9+2*(240e-9/ceil(23.9995e-3)))+floor((ceil(23.9995e-3)-1)/2.0)*(220e-9+2*(240e-9/ceil(23.9995e-3))))+(ceil(23.9995e-3)/2-floor(ceil(23.9995e-3)/2)==0?280e-9+2*(240e-9/ceil(23.9995e-3)):0))/1'
+NRD='240e-9/ceil(23.9995e-3)<119.5e-9?(floor(ceil(23.9995e-3)/2.0)*(14.4e-15+(240e-9/ceil(23.9995e-3))*100e-9)+(ceil(23.9995e-3)/2-floor(ceil(23.9995e-3)/2)!=0?14.4e-15+(240e-9/ceil(23.9995e-3))*50e-9:0))/1:((floor(ceil(23.9995e-3)/2.0)*(110e-9*(240e-9/ceil(23.9995e-3)))+(ceil(23.9995e-3)/2-floor(ceil(23.9995e-3)/2)!=0?140e-9*(240e-9/ceil(23.9995e-3)):0))/1)/((((240e-9/ceil(23.9995e-3))*ceil(23.9995e-3))*(240e-9/ceil(23.9995e-3)))*ceil(23.9995e-3))' NRS='240e-9/ceil(23.9995e-3)<119.5e-9?(((14.4e-15+(240e-9/ceil(23.9995e-3))*50e-9)+floor((ceil(23.9995e-3)-1)/2.0)*(14.4e-15+(240e-9/ceil(23.9995e-3))*100e-9))+(ceil(23.9995e-3)/2-floor(ceil(23.9995e-3)/2)==0?14.4e-15+(240e-9/ceil(23.9995e-3))*50e-9:0))/1:(((140e-9*(240e-9/ceil(23.9995e-3))+floor((ceil(23.9995e-3)-1)/2.0)*(110e-9*(240e-9/ceil(23.9995e-3))))+(ceil(23.9995e-3)/2-floor(ceil(23.9995e-3)/2)==0?140e-9*(240e-9/ceil(23.9995e-3)):0))/1)/((((240e-9/ceil(23.9995e-3))*ceil(23.9995e-3))*(240e-9/ceil(23.9995e-3)))*ceil(23.9995e-3))' M=1
mpm1 x clk net4 vdd g45p1svt L=45e-9 W=240e-9 AD='240e-9/ceil(23.9995e-3)<119.5e-9?(floor(ceil(23.9995e-3)/2.0)*(14.4e-15+(240e-9/ceil(23.9995e-3))*100e-9)+(ceil(23.9995e-3)/2-floor(ceil(23.9995e-3)/2)!=0?14.4e-15+(240e-9/ceil(23.9995e-3))*50e-9:0))/1:(floor(ceil(23.9995e-3)/2.0)*(110e-9*(240e-9/ceil(23.9995e-3)))+(ceil(23.9995e-3)/2-floor(ceil(23.9995e-3)/2)!=0?140e-9*(240e-9/ceil(23.9995e-3)):0))/1' AS='240e-9/ceil(23.9995e-3)<119.5e-9?(((14.4e-15+(240e-9/ceil(23.9995e-3))*50e-9)+floor((ceil(23.9995e-3)-1)/2.0)*(14.4e-15+(240e-9/ceil(23.9995e-3))*100e-9))+(ceil(23.9995e-3)/2-floor(ceil(23.9995e-3)/2)==0?14.4e-15+(240e-9/ceil(23.9995e-3))*50e-9:0))/1:((140e-9*(240e-9/ceil(23.9995e-3))+floor((ceil(23.9995e-3)-1)/2.0)*(110e-9*(240e-9/ceil(23.9995e-3))))+(ceil(23.9995e-3)/2-floor(ceil(23.9995e-3)/2)==0?140e-9*(240e-9/ceil(23.9995e-3)):0))/1'
+PD='240e-9/ceil(23.9995e-3)<119.5e-9?(floor(ceil(23.9995e-3)/2.0)*680e-9+(ceil(23.9995e-3)/2-floor(ceil(23.9995e-3)/2)!=0?580e-9:0))/1:(floor(ceil(23.9995e-3)/2.0)*(220e-9+2*(240e-9/ceil(23.9995e-3)))+(ceil(23.9995e-3)/2-floor(ceil(23.9995e-3)/2)!=0?280e-9+2*(240e-9/ceil(23.9995e-3)):0))/1' PS='240e-9/ceil(23.9995e-3)<119.5e-9?((580e-9+floor((ceil(23.9995e-3)-1)/2.0)*680e-9)+(ceil(23.9995e-3)/2-floor(ceil(23.9995e-3)/2)==0?580e-9:0))/1:(((280e-9+2*(240e-9/ceil(23.9995e-3)))+floor((ceil(23.9995e-3)-1)/2.0)*(220e-9+2*(240e-9/ceil(23.9995e-3))))+(ceil(23.9995e-3)/2-floor(ceil(23.9995e-3)/2)==0?280e-9+2*(240e-9/ceil(23.9995e-3)):0))/1'
+NRD='240e-9/ceil(23.9995e-3)<119.5e-9?(floor(ceil(23.9995e-3)/2.0)*(14.4e-15+(240e-9/ceil(23.9995e-3))*100e-9)+(ceil(23.9995e-3)/2-floor(ceil(23.9995e-3)/2)!=0?14.4e-15+(240e-9/ceil(23.9995e-3))*50e-9:0))/1:((floor(ceil(23.9995e-3)/2.0)*(110e-9*(240e-9/ceil(23.9995e-3)))+(ceil(23.9995e-3)/2-floor(ceil(23.9995e-3)/2)!=0?140e-9*(240e-9/ceil(23.9995e-3)):0))/1)/((((240e-9/ceil(23.9995e-3))*ceil(23.9995e-3))*(240e-9/ceil(23.9995e-3)))*ceil(23.9995e-3))' NRS='240e-9/ceil(23.9995e-3)<119.5e-9?(((14.4e-15+(240e-9/ceil(23.9995e-3))*50e-9)+floor((ceil(23.9995e-3)-1)/2.0)*(14.4e-15+(240e-9/ceil(23.9995e-3))*100e-9))+(ceil(23.9995e-3)/2-floor(ceil(23.9995e-3)/2)==0?14.4e-15+(240e-9/ceil(23.9995e-3))*50e-9:0))/1:(((140e-9*(240e-9/ceil(23.9995e-3))+floor((ceil(23.9995e-3)-1)/2.0)*(110e-9*(240e-9/ceil(23.9995e-3))))+(ceil(23.9995e-3)/2-floor(ceil(23.9995e-3)/2)==0?140e-9*(240e-9/ceil(23.9995e-3)):0))/1)/((((240e-9/ceil(23.9995e-3))*ceil(23.9995e-3))*(240e-9/ceil(23.9995e-3)))*ceil(23.9995e-3))' M=1
mpm0 net4 net5 vdd vdd g45p1svt L=45e-9 W=240e-9 AD='240e-9/ceil(23.9995e-3)<119.5e-9?(floor(ceil(23.9995e-3)/2.0)*(14.4e-15+(240e-9/ceil(23.9995e-3))*100e-9)+(ceil(23.9995e-3)/2-floor(ceil(23.9995e-3)/2)!=0?14.4e-15+(240e-9/ceil(23.9995e-3))*50e-9:0))/1:(floor(ceil(23.9995e-3)/2.0)*(110e-9*(240e-9/ceil(23.9995e-3)))+(ceil(23.9995e-3)/2-floor(ceil(23.9995e-3)/2)!=0?140e-9*(240e-9/ceil(23.9995e-3)):0))/1' AS='240e-9/ceil(23.9995e-3)<119.5e-9?(((14.4e-15+(240e-9/ceil(23.9995e-3))*50e-9)+floor((ceil(23.9995e-3)-1)/2.0)*(14.4e-15+(240e-9/ceil(23.9995e-3))*100e-9))+(ceil(23.9995e-3)/2-floor(ceil(23.9995e-3)/2)==0?14.4e-15+(240e-9/ceil(23.9995e-3))*50e-9:0))/1:((140e-9*(240e-9/ceil(23.9995e-3))+floor((ceil(23.9995e-3)-1)/2.0)*(110e-9*(240e-9/ceil(23.9995e-3))))+(ceil(23.9995e-3)/2-floor(ceil(23.9995e-3)/2)==0?140e-9*(240e-9/ceil(23.9995e-3)):0))/1'
+PD='240e-9/ceil(23.9995e-3)<119.5e-9?(floor(ceil(23.9995e-3)/2.0)*680e-9+(ceil(23.9995e-3)/2-floor(ceil(23.9995e-3)/2)!=0?580e-9:0))/1:(floor(ceil(23.9995e-3)/2.0)*(220e-9+2*(240e-9/ceil(23.9995e-3)))+(ceil(23.9995e-3)/2-floor(ceil(23.9995e-3)/2)!=0?280e-9+2*(240e-9/ceil(23.9995e-3)):0))/1' PS='240e-9/ceil(23.9995e-3)<119.5e-9?((580e-9+floor((ceil(23.9995e-3)-1)/2.0)*680e-9)+(ceil(23.9995e-3)/2-floor(ceil(23.9995e-3)/2)==0?580e-9:0))/1:(((280e-9+2*(240e-9/ceil(23.9995e-3)))+floor((ceil(23.9995e-3)-1)/2.0)*(220e-9+2*(240e-9/ceil(23.9995e-3))))+(ceil(23.9995e-3)/2-floor(ceil(23.9995e-3)/2)==0?280e-9+2*(240e-9/ceil(23.9995e-3)):0))/1'
+NRD='240e-9/ceil(23.9995e-3)<119.5e-9?(floor(ceil(23.9995e-3)/2.0)*(14.4e-15+(240e-9/ceil(23.9995e-3))*100e-9)+(ceil(23.9995e-3)/2-floor(ceil(23.9995e-3)/2)!=0?14.4e-15+(240e-9/ceil(23.9995e-3))*50e-9:0))/1:((floor(ceil(23.9995e-3)/2.0)*(110e-9*(240e-9/ceil(23.9995e-3)))+(ceil(23.9995e-3)/2-floor(ceil(23.9995e-3)/2)!=0?140e-9*(240e-9/ceil(23.9995e-3)):0))/1)/((((240e-9/ceil(23.9995e-3))*ceil(23.9995e-3))*(240e-9/ceil(23.9995e-3)))*ceil(23.9995e-3))' NRS='240e-9/ceil(23.9995e-3)<119.5e-9?(((14.4e-15+(240e-9/ceil(23.9995e-3))*50e-9)+floor((ceil(23.9995e-3)-1)/2.0)*(14.4e-15+(240e-9/ceil(23.9995e-3))*100e-9))+(ceil(23.9995e-3)/2-floor(ceil(23.9995e-3)/2)==0?14.4e-15+(240e-9/ceil(23.9995e-3))*50e-9:0))/1:(((140e-9*(240e-9/ceil(23.9995e-3))+floor((ceil(23.9995e-3)-1)/2.0)*(110e-9*(240e-9/ceil(23.9995e-3))))+(ceil(23.9995e-3)/2-floor(ceil(23.9995e-3)/2)==0?140e-9*(240e-9/ceil(23.9995e-3)):0))/1)/((((240e-9/ceil(23.9995e-3))*ceil(23.9995e-3))*(240e-9/ceil(23.9995e-3)))*ceil(23.9995e-3))' M=1